<configuration>
    <input>
        <net-file value="ecrow.net.xml"/>
        <route-files value="ecrow.passenger.rou.xml"/>
    </input>
    <time>
        <begin value="0"/>
        <end value="1000"/>
    </time>
    <gui_only>
        <start value="false"/>
    </gui_only>
</configuration>
