<routes>
	<vType accel="10.0" decel="5.0" id="Car" length="2.0" maxSpeed="80.0" sigma="0.7" />
	<route id="easttraffic" edges="east2 east1" />
	<route id="westtraffic" edges="west1 west2" />
	<flow id="type1" color="blue" begin="0" end="400" period="0.1" type="Car" departLane="random" from="west1" to="west2" />
	<flow id="type2" color="1,1,0" begin="0" end="400" period="0.1" type="Car" departLane="random" from="east2" to="east1" />
</routes>